Circuit: * \\ad.uillinois.edu\engr-ews\palella2\Documents\ECE395_palella2\simulations\preamp simulation.asc

Direct Newton iteration for .op point succeeded.

Date: Fri Oct 25 12:51:24 2019
Total elapsed time: 0.558 seconds.

tnom = 27
temp = 27
method = trap
totiter = 50
traniter = 0
tranpoints = 0
accept = 0
rejected = 0
matrix size = 78
fillins = 102
solver = Normal
Matrix Compiler1:     622 opcodes
Matrix Compiler2:     645 opcodes
